100
 generated by VMD
 C         6.059000        5.732000       -0.065000
 C         6.257000        5.031000        1.127000
 C         6.302000        3.636000        1.119000
 C         6.149000        2.928000       -0.080000
 C         6.163000        1.437000       -0.083000
 C         7.407000        0.716000       -0.094000
 C         8.655000        1.399000       -0.113000
 C         9.846000        0.708000       -0.129000
 C         9.846000       -0.706000       -0.129000
 C         8.655000       -1.397000       -0.113000
 C         7.408000       -0.715000       -0.093000
 C         6.163000       -1.435000       -0.083000
 C         6.149000       -2.927000       -0.080000
 C         5.957000       -3.637000       -1.273000
 C         5.910000       -5.032000       -1.265000
 C         6.059000       -5.731000       -0.064000
 C         6.257000       -5.030000        1.128000
 C         6.303000       -3.635000        1.120000
 C         4.990000       -0.723000       -0.075000
 C         3.582000       -1.176000       -0.052000
 C         2.937000       -2.396000       -0.029000
 C         1.520000       -2.423000       -0.007000
 C         0.736000       -1.272000       -0.005000
 C        -0.736000       -1.273000        0.015000
 C        -1.519000       -2.424000        0.017000
 C        -2.937000       -2.396000        0.038000
 C        -3.582000       -1.177000        0.062000
 C        -4.990000       -0.724000        0.084000
 C        -6.163000       -1.436000        0.091000
 C        -6.149000       -2.928000        0.088000
 C        -5.957000       -3.638000        1.281000
 C        -5.910000       -5.033000        1.273000
 C        -6.059000       -5.732000        0.073000
 C        -6.257000       -5.031000       -1.119000
 C        -6.302000       -3.636000       -1.112000
 C        -7.408000       -0.716000        0.101000
 C        -8.655000       -1.398000        0.120000
 C        -9.846000       -0.708000        0.135000
 C        -9.846000        0.706000        0.135000
 C        -8.655000        1.397000        0.120000
 C        -7.408000        0.715000        0.101000
 C        -6.163000        1.435000        0.091000
 C        -6.149000        2.927000        0.088000
 C        -5.958000        3.637000        1.282000
 C        -5.911000        5.032000        1.274000
 C        -6.060000        5.731000        0.073000
 C        -6.257000        5.030000       -1.119000
 C        -6.303000        3.635000       -1.111000
 C        -4.990000        0.723000        0.084000
 C        -3.582000        1.176000        0.062000
 C        -2.937000        2.396000        0.038000
 C        -1.520000        2.423000        0.017000
 C        -0.736000        1.272000        0.015000
 C         0.736000        1.273000       -0.005000
 C         1.519000        2.424000       -0.008000
 C         2.937000        2.396000       -0.029000
 C         3.582000        1.177000       -0.053000
 C         4.990000        0.724000       -0.075000
 C         2.789000        0.000000       -0.043000
 C         1.395000        0.000000       -0.019000
 C        -1.395000        0.000000        0.029000
 C        -2.789000        0.000000        0.052000
 C         5.957000        3.638000       -1.274000
 C         5.910000        5.033000       -1.266000
 H         6.024000        6.816000       -0.059000
 H         6.373000        5.568000        2.062000
 H         6.451000        3.089000        2.045000
 H         8.658000        2.482000       -0.117000
 H        10.788000        1.244000       -0.145000
 H        10.788000       -1.242000       -0.144000
 H         8.659000       -2.481000       -0.116000
 H         5.836000       -3.092000       -2.204000
 H         5.758000       -5.571000       -2.194000
 H         6.024000       -6.815000       -0.058000
 H         6.374000       -5.566000        2.063000
 H         6.452000       -3.088000        2.045000
 H         3.479000       -3.334000       -0.029000
 H         1.047000       -3.398000        0.008000
 H        -1.046000       -3.398000        0.001000
 H        -3.478000       -3.335000        0.038000
 H        -5.836000       -3.093000        2.212000
 H        -5.758000       -5.572000        2.202000
 H        -6.024000       -6.816000        0.067000
 H        -6.373000       -5.568000       -2.055000
 H        -6.451000       -3.089000       -2.037000
 H        -8.658000       -2.482000        0.123000
 H       -10.788000       -1.244000        0.150000
 H       -10.788000        1.242000        0.150000
 H        -8.659000        2.481000        0.123000
 H        -5.836000        3.092000        2.212000
 H        -5.759000        5.571000        2.202000
 H        -6.025000        6.815000        0.067000
 H        -6.374000        5.567000       -2.054000
 H        -6.451000        3.088000       -2.037000
 H        -3.479000        3.334000        0.038000
 H        -1.047000        3.398000        0.001000
 H         1.046000        3.398000        0.008000
 H         3.478000        3.335000       -0.029000
 H         5.835000        3.093000       -2.204000
 H         5.758000        5.572000       -2.194000
