170
 generated by VMD
  C         20.883928       22.343891       32.271641
  C         22.007698       21.985733       33.077980
  C         23.053230       21.704769       32.169556
  C         22.577967       21.859341       30.844439
  C         21.222982       22.277924       30.945997
  C         22.366190       22.706448       34.207500
  C         23.695646       23.060257       34.413929
  C         24.708035       22.776093       33.522926
  C         24.344591       22.128078       32.377724
  C         25.166382       22.657536       31.341051
  C         24.696474       22.725147       29.996202
  C         23.378675       22.373672       29.809771
  C         22.891518       23.255558       28.907745
  C         21.533037       23.655693       29.005903
  C         20.745378       23.193100       30.046457
  C         19.972389       24.198952       30.450674
  C         19.613848       24.290474       31.720140
  C         20.057135       23.362049       32.668617
  C         20.350685       24.107700       33.872082
  C         21.519655       23.769192       34.604130
  C         19.629122       25.609539       32.272305
  C         20.118351       25.449162       33.602158
  C         23.660839       24.395679       34.977158
  C         22.299723       24.808929       35.045235
  C         20.218784       25.306938       29.609127
  C         21.225964       24.968048       28.766163
  C         23.857674       24.182106       28.543537
  C         24.928915       23.865601       29.266342
  C         26.059792       23.566582       31.910547
  C         25.720722       23.685898       33.215645
  C         25.705584       24.994877       33.853745
  C         24.695545       25.358356       34.740383
  C         21.973803       26.157894       34.822777
  C         20.832626       26.491062       34.134499
  C         19.876572       26.767086       31.479589
  C         20.143219       26.573524       30.121931
  C         23.532402       25.475182       28.215467
  C         22.221176       25.873699       28.360710
  C         26.399900       24.685642       31.126448
  C         25.825453       24.816650       29.830782
  C         26.327793       26.026154       33.134457
  C         26.693338       25.862732       31.794333
  C         22.995810       27.124504       34.955555
  C         24.327213       26.699783       34.913334
  C         20.762173       27.748814       33.469845
  C         20.269020       27.865562       32.219425
  C         25.583082       26.063637       29.312107
  C         24.546032       26.435925       28.474508
  C         21.956009       27.237904       28.634930
  C         20.900940       27.587029       29.521055
  C         21.276960       28.736088       30.187086
  C         20.969736       28.894165       31.550804
  C         21.794472       28.619305       33.583500
  C         22.868536       28.369858       34.381954
  C         24.993511       27.774715       34.243526
  C         26.006475       27.394382       33.308918
  C         26.545288       27.104416       31.183249
  C         25.980385       27.227489       29.899582
  C         22.926844       28.192192       28.770254
  C         24.237309       27.737694       28.728178
  C         26.159338       28.052982       32.115276
  C         25.183519       28.282669       29.569092
  C         22.503679       29.111088       29.689255
  C         21.865486       29.427555       32.455940
  C         24.122540       28.824005       33.944897
  C         23.185394       29.801842       31.967117
  C         24.291946       29.514839       32.765240
  C         25.320099       29.115875       31.840740
  C         23.465157       29.614967       30.600281
  C         24.814474       29.219101       30.547144
  C         23.180223       31.179787       43.942154
  C         24.370262       31.006516       43.352699
  C         24.459700       30.132641       42.282936
  C         23.392860       29.309063       41.944138
  C         23.648832       28.131550       41.208954
  C         22.815725       27.776596       40.149139
  C         21.718929       28.608814       39.771366
  C         20.913086       28.298367       38.711449
  C         21.158237       27.165756       37.994377
  C         22.241695       26.355202       38.332584
  C         23.115908       26.607815       39.389908
  C         24.210623       25.771736       39.743694
  C         24.721022       24.793549       38.831223
  C         23.961061       23.748798       38.360733
  C         24.621574       22.796623       37.548084
  C         25.922798       23.070442       37.111710
  C         26.571943       24.154255       37.469894
  C         26.011959       25.009167       38.419811
  C         24.961235       26.102100       40.868923
  C         25.948662       25.394707       41.533199
  C         26.648191       24.146416       41.342621
  C         27.612160       23.756748       42.225006
  C         28.039806       24.551868       43.323212
  C         28.978491       24.204208       44.280876
  C         29.703323       23.011436       44.152863
  C         30.716089       22.659016       45.107712
  C         30.930008       23.472790       46.259605
  C         31.755779       23.523216       47.354652
  C         32.695698       22.544746       47.856140
  C         32.798904       21.313183       47.260273
  C         34.073254       20.935326       46.668392
  C         34.188751       19.815388       45.836895
  C         33.042221       19.033367       45.650566
  C         31.832443       19.390209       46.252869
  C         31.705399       20.453835       47.052322
  C         33.506489       22.898277       48.961906
  C         34.349136       21.946751       49.556229
  C         35.068920       22.311592       50.680908
  C         35.031250       23.605522       51.158081
  C         34.216137       24.549934       50.626255
  C         33.425804       24.223984       49.508698
  C         32.409225       25.115334       49.055817
  C         32.204967       26.412178       49.654037
  C         33.025963       27.558010       49.409847
  C         32.575577       28.876617       49.697514
  C         31.453745       28.991592       50.507401
  C         30.718517       27.849667       50.874306
  C         31.050728       26.557724       50.386906
  C         31.553324       24.752674       47.988968
  C         30.645094       25.473598       47.299667
  C         30.145525       26.800480       47.356289
  C         29.120340       27.204906       46.458599
  C         28.678442       26.342808       45.471252
  C         27.601316       26.616039       44.602303
  C         26.807379       27.759701       44.802479
  C         25.706589       27.992805       43.903824
  C         25.546234       27.202003       42.723839
  C         24.711512       27.260265       41.572685
  C         26.298756       26.086559       42.690815
  C         27.278669       25.729057       43.565369
  C         29.273804       25.077896       45.309265
  C         30.269247       24.660160       46.255630
  C         22.200056       29.501598       42.595406
  C         21.995920       30.510822       43.573357
  H         22.970407       31.800522       44.809280
  H         25.205814       31.506691       43.836250
  H         25.384300       30.136486       41.711544
  H         21.274000       29.429306       40.329269
  H         20.094749       28.968491       38.459366
  H         20.694584       26.840385       37.065659
  H         22.307762       25.476101       37.696045
  H         22.978022       23.478779       38.737465
  H         24.141409       21.890930       37.186085
  H         26.381046       22.350876       36.438011
  H         27.559317       24.405224       37.089550
  H         26.605024       25.806995       38.858727
  H         26.396883       23.471485       40.528656
  H         28.049488       22.791286       41.985176
  H         29.488091       22.365948       43.305099
  H         31.336569       21.802876       44.856689
  H         34.954460       21.561661       46.785080
  H         35.112926       19.731159       45.271370
  H         33.093224       18.242699       44.905792
  H         30.943846       18.777397       46.122169
  H         30.756050       20.719963       47.509537
  H         34.324429       20.915871       49.214493
  H         35.703564       21.557095       51.139107
  H         35.683334       23.871532       51.986008
  H         34.008888       25.498413       51.116859
  H         33.865704       27.442478       48.728287
  H         33.037903       29.787254       49.325920
  H         31.060131       29.981686       50.722176
  H         29.812773       27.984306       51.459732
  H         30.315550       25.775963       50.559013
  H         30.427647       27.465504       48.168625
  H         28.768148       28.230198       46.548698
  H         26.906071       28.388176       45.684395
  H         24.871941       28.656895       44.113205
  H         21.393299       28.793377       42.427418
  H         21.118729       30.629684       44.203148
